Circuit: * C:\Users\sratt\Desktop\New folder\NOTES\6th sem\LABS\PE lab\exp1\Shubham Rattra _ UE185112 _ Exp1.asc

Direct Newton iteration for .op point succeeded.

Date: Sat Jun 12 00:18:33 2021
Total elapsed time: 0.048 seconds.

tnom = 27
temp = 27
method = modified trap
totiter = 63
traniter = 60
tranpoints = 31
accept = 31
rejected = 0
matrix size = 2
fillins = 0
solver = Normal
Matrix Compiler1: 36 bytes object code size
Matrix Compiler2: 96 bytes object code size
