Circuit: * C:\Users\sratt\Desktop\New folder\NOTES\6th sem\LABS\PE lab\exp6\Shubham Rattra _ UE185112 _ exp6.asc

.OP point found by inspection.

Date: Mon Jun 21 02:16:43 2021
Total elapsed time: 0.105 seconds.

tnom = 27
temp = 27
method = modified trap
totiter = 5822
traniter = 5822
tranpoints = 2520
accept = 2274
rejected = 246
matrix size = 30
fillins = 15
solver = Normal
Matrix Compiler1: 1.64 KB object code size  0.8/0.4/[0.2]
Matrix Compiler2: 2.21 KB object code size  0.2/0.4/[0.2]

