Circuit: * C:\Users\sratt\Desktop\New folder\NOTES\6th sem\LABS\PE lab\exp3\Shubham Rattra _ UE185112 _ exp3.asc

.OP point found by inspection.
.step vgs=0
.step vgs=2
.step vgs=4
.step vgs=6
.step vgs=8
.step vgs=10

Date: Thu Jun 17 21:51:23 2021
Total elapsed time: 0.102 seconds.

tnom = 27
temp = 27
method = trap
totiter = 3628
traniter = 0
tranpoints = 0
accept = 0
rejected = 0
matrix size = 6
fillins = 0
solver = Normal
Matrix Compiler1: 146 bytes object code size  0.1/0.1/[0.0]
Matrix Compiler2: 380 bytes object code size  0.1/0.1/[0.0]

